egret/models/tests/transmission_test_instances/dcopf_losses_solution_files/pglib_opf_case30_ieee_btheta_dcopf_losses_solution.json
{"elements": {"bus": {"1": {"matpower_bustype": "ref", "area": 1.0, "vm": 1.0, "va": 0.0, "base_kv": 132.0, "zone": 1.0, "v_min": 0.94, "v_max": 1.06, "pl": 0.0, "lmp": 18.421527999800002}, "2": {"matpower_bustype": "PV", "area": 1.0, "vm": 1.0, "va": 0.0881973599917, "base_kv": 132.0, "zone": 1.0, "v_min": 0.94, "v_max": 1.06, "pl": 21.7, "lmp": 52.1822539993}, "3": {"matpower_bustype": "PQ", "area": 1.0, "vm": 1.0, "va": 0.143858645449, "base_kv": 132.0, "zone": 1.0, "v_min": 0.94, "v_max": 1.06, "pl": 2.4, "lmp": 39.6193615282}, "4": {"matpower_bustype": "PQ", "area": 1.0, "vm": 1.0, "va": 0.176406513689, "base_kv": 132.0, "zone": 1.0, "v_min": 0.94, "v_max": 1.06, "pl": 7.6, "lmp": 45.106350485499995}, "5": {"matpower_bustype": "PV", "area": 1.0, "vm": 1.0, "va": 0.260187536286, "base_kv": 132.0, "zone": 1.0, "v_min": 0.94, "v_max": 1.06, "pl": 94.2, "lmp": 53.419471912700004}, "6": {"matpower_bustype": "PQ", "area": 1.0, "vm": 1.0, "va": 0.208128946462, "base_kv": 132.0, "zone": 1.0, "v_min": 0.94, "v_max": 1.06, "pl": 0.0, "lmp": 48.2612325945}, "7": {"matpower_bustype": "PQ", "area": 1.0, "vm": 1.0, "va": 0.241596157052, "base_kv": 132.0, "zone": 1.0, "v_min": 0.94, "v_max": 1.06, "pl": 22.8, "lmp": 50.6750353791}, "8": {"matpower_bustype": "PV", "area": 1.0, "vm": 1.0, "va": 0.221630966777, "base_kv": 132.0, "zone": 1.0, "v_min": 0.94, "v_max": 1.06, "pl": 30.0, "lmp": 48.6269625559}, "9": {"matpower_bustype": "PQ", "area": 1.0, "vm": 1.0, "va": 0.264654876481, "base_kv": 1.0, "zone": 1.0, "v_min": 0.94, "v_max": 1.06, "pl": 0.0, "lmp": 47.8962919821}, "10": {"matpower_bustype": "PQ", "area": 1.0, "vm": 1.0, "va": 0.295220848538, "base_kv": 33.0, "zone": 1.0, "v_min": 0.94, "v_max": 1.06, "pl": 5.8, "lmp": 47.6989530871}, "11": {"matpower_bustype": "PV", "area": 1.0, "vm": 1.0, "va": 0.264654876489, "base_kv": 11.0, "zone": 1.0, "v_min": 0.94, "v_max": 1.06, "pl": 0.0, "lmp": 47.8962919821}, "12": {"matpower_bustype": "PQ", "area": 1.0, "vm": 1.0, "va": 0.278134384184, "base_kv": 33.0, "zone": 1.0, "v_min": 0.94, "v_max": 1.06, "pl": 11.2, "lmp": 45.990673114399996}, "13": {"matpower_bustype": "PV", "area": 1.0, "vm": 1.0, "va": 0.278134384189, "base_kv": 11.0, "zone": 1.0, "v_min": 0.94, "v_max": 1.06, "pl": 0.0, "lmp": 45.990673114399996}, "14": {"matpower_bustype": "PQ", "area": 1.0, "vm": 1.0, "va": 0.301353269012, "base_kv": 33.0, "zone": 1.0, "v_min": 0.94, "v_max": 1.06, "pl": 6.2, "lmp": 47.0566229688}, "15": {"matpower_bustype": "PQ", "area": 1.0, "vm": 1.0, "va": 0.306347254938, "base_kv": 33.0, "zone": 1.0, "v_min": 0.94, "v_max": 1.06, "pl": 8.2, "lmp": 47.617452723599996}, "16": {"matpower_bustype": "PQ", "area": 1.0, "vm": 1.0, "va": 0.294400208607, "base_kv": 33.0, "zone": 1.0, "v_min": 0.94, "v_max": 1.06, "pl": 3.5000000000000004, "lmp": 47.1688247806}, "17": {"matpower_bustype": "PQ", "area": 1.0, "vm": 1.0, "va": 0.300902200895, "base_kv": 33.0, "zone": 1.0, "v_min": 0.94, "v_max": 1.06, "pl": 9.0, "lmp": 47.724836195099996}, "18": {"matpower_bustype": "PQ", "area": 1.0, "vm": 1.0, "va": 0.321360231865, "base_kv": 33.0, "zone": 1.0, "v_min": 0.94, "v_max": 1.06, "pl": 3.2, "lmp": 48.5080137543}, "19": {"matpower_bustype": "PQ", "area": 1.0, "vm": 1.0, "va": 0.325080232022, "base_kv": 33.0, "zone": 1.0, "v_min": 0.94, "v_max": 1.06, "pl": 9.5, "lmp": 48.7948792803}, "20": {"matpower_bustype": "PQ", "area": 1.0, "vm": 1.0, "va": 0.318960431484, "base_kv": 33.0, "zone": 1.0, "v_min": 0.94, "v_max": 1.06, "pl": 2.2, "lmp": 48.5540067507}, "21": {"matpower_bustype": "PQ", "area": 1.0, "vm": 1.0, "va": 0.309281215841, "base_kv": 33.0, "zone": 1.0, "v_min": 0.94, "v_max": 1.06, "pl": 17.5, "lmp": 48.3185452281}, "22": {"matpower_bustype": "PQ", "area": 1.0, "vm": 1.0, "va": 0.308662521108, "base_kv": 33.0, "zone": 1.0, "v_min": 0.94, "v_max": 1.06, "pl": 0.0, "lmp": 48.2867014548}, "23": {"matpower_bustype": "PQ", "area": 1.0, "vm": 1.0, "va": 0.317492459538, "base_kv": 33.0, "zone": 1.0, "v_min": 0.94, "v_max": 1.06, "pl": 3.2, "lmp": 48.4387051709}, "24": {"matpower_bustype": "PQ", "area": 1.0, "vm": 1.0, "va": 0.321566966597, "base_kv": 33.0, "zone": 1.0, "v_min": 0.94, "v_max": 1.06, "pl": 8.7, "lmp": 49.020266831099995}, "25": {"matpower_bustype": "PQ", "area": 1.0, "vm": 1.0, "va": 0.311037591942, "base_kv": 33.0, "zone": 1.0, "v_min": 0.94, "v_max": 1.06, "pl": 0.0, "lmp": 48.8102112984}, "26": {"matpower_bustype": "PQ", "area": 1.0, "vm": 1.0, "va": 0.330424396678, "base_kv": 33.0, "zone": 1.0, "v_min": 0.94, "v_max": 1.06, "pl": 3.5000000000000004, "lmp": 50.0938831477}, "27": {"matpower_bustype": "PQ", "area": 1.0, "vm": 1.0, "va": 0.295116505803, "base_kv": 33.0, "zone": 1.0, "v_min": 0.94, "v_max": 1.06, "pl": 0.0, "lmp": 48.23210335540001}, "28": {"matpower_bustype": "PQ", "area": 1.0, "vm": 1.0, "va": 0.220891144352, "base_kv": 132.0, "zone": 1.0, "v_min": 0.94, "v_max": 1.06, "pl": 0.0, "lmp": 48.5651329242}, "29": {"matpower_bustype": "PQ", "area": 1.0, "vm": 1.0, "va": 0.327935129424, "base_kv": 33.0, "zone": 1.0, "v_min": 0.94, "v_max": 1.06, "pl": 2.4, "lmp": 49.940562309300006}, "30": {"matpower_bustype": "PQ", "area": 1.0, "vm": 1.0, "va": 0.349396625462, "base_kv": 33.0, "zone": 1.0, "v_min": 0.94, "v_max": 1.06, "pl": 10.6, "lmp": 51.091644292299996}}, "load": {"load_2": {"in_service": true, "p_load": 21.7, "q_load": 12.7, "bus": "2"}, "load_3": {"in_service": true, "p_load": 2.4, "q_load": 1.2, "bus": "3"}, "load_4": {"in_service": true, "p_load": 7.6, "q_load": 1.6, "bus": "4"}, "load_5": {"in_service": true, "p_load": 94.2, "q_load": 19.0, "bus": "5"}, "load_7": {"in_service": true, "p_load": 22.8, "q_load": 10.9, "bus": "7"}, "load_8": {"in_service": true, "p_load": 30.0, "q_load": 30.0, "bus": "8"}, "load_10": {"in_service": true, "p_load": 5.8, "q_load": 2.0, "bus": "10"}, "load_12": {"in_service": true, "p_load": 11.2, "q_load": 7.5, "bus": "12"}, "load_14": {"in_service": true, "p_load": 6.2, "q_load": 1.6, "bus": "14"}, "load_15": {"in_service": true, "p_load": 8.2, "q_load": 2.5, "bus": "15"}, "load_16": {"in_service": true, "p_load": 3.5000000000000004, "q_load": 1.8000000000000003, "bus": "16"}, "load_17": {"in_service": true, "p_load": 9.0, "q_load": 5.8, "bus": "17"}, "load_18": {"in_service": true, "p_load": 3.2, "q_load": 0.9000000000000001, "bus": "18"}, "load_19": {"in_service": true, "p_load": 9.5, "q_load": 3.4000000000000004, "bus": "19"}, "load_20": {"in_service": true, "p_load": 2.2, "q_load": 0.7, "bus": "20"}, "load_21": {"in_service": true, "p_load": 17.5, "q_load": 11.2, "bus": "21"}, "load_23": {"in_service": true, "p_load": 3.2, "q_load": 1.6, "bus": "23"}, "load_24": {"in_service": true, "p_load": 8.7, "q_load": 6.7, "bus": "24"}, "load_26": {"in_service": true, "p_load": 3.5000000000000004, "q_load": 2.3, "bus": "26"}, "load_29": {"in_service": true, "p_load": 2.4, "q_load": 0.9000000000000001, "bus": "29"}, "load_30": {"in_service": true, "p_load": 10.6, "q_load": 1.9, "bus": "30"}}, "shunt": {"shunt_10": {"shunt_type": "fixed", "bs": 19.0, "gs": 0.0, "bus": "10"}, "shunt_24": {"shunt_type": "fixed", "bs": 4.3, "gs": 0.0, "bus": "24"}}, "generator": {"1": {"bus": "1", "pg": 222.643017464, "qg": 5.0, "vg": 1.0, "mbase": 100.0, "in_service": true, "p_min": 0.0, "p_max": 271.0, "q_min": 0.0, "q_max": 10.0, "generator_type": "thermal", "p_cost": {"data_type": "cost_curve", "cost_curve_type": "polynomial", "values": {"0": 0.0, "1": 18.421528, "2": 0.0}}, "startup_cost": 0.0, "shutdown_cost": 0.0}, "2": {"bus": "2", "pg": 78.5786779908, "qg": 3.0, "vg": 1.0, "mbase": 100.0, "in_service": true, "p_min": 0.0, "p_max": 92.0, "q_min": -40.0, "q_max": 46.0, "generator_type": "thermal", "p_cost": {"data_type": "cost_curve", "cost_curve_type": "polynomial", "values": {"0": 0.0, "1": 52.182254, "2": 0.0}}, "startup_cost": 0.0, "shutdown_cost": 0.0}, "3": {"bus": "5", "pg": 0.0, "qg": 0.0, "vg": 1.0, "mbase": 100.0, "in_service": true, "p_min": 0.0, "p_max": 0.0, "q_min": -40.0, "q_max": 40.0, "generator_type": "thermal", "p_cost": {"data_type": "cost_curve", "cost_curve_type": "polynomial", "values": {"0": 0.0, "1": 0.0, "2": 0.0}}, "startup_cost": 0.0, "shutdown_cost": 0.0}, "4": {"bus": "8", "pg": 0.0, "qg": 15.0, "vg": 1.0, "mbase": 100.0, "in_service": true, "p_min": 0.0, "p_max": 0.0, "q_min": -10.0, "q_max": 40.0, "generator_type": "thermal", "p_cost": {"data_type": "cost_curve", "cost_curve_type": "polynomial", "values": {"0": 0.0, "1": 0.0, "2": 0.0}}, "startup_cost": 0.0, "shutdown_cost": 0.0}, "5": {"bus": "11", "pg": 0.0, "qg": 9.0, "vg": 1.0, "mbase": 100.0, "in_service": true, "p_min": 0.0, "p_max": 0.0, "q_min": -6.0, "q_max": 24.0, "generator_type": "thermal", "p_cost": {"data_type": "cost_curve", "cost_curve_type": "polynomial", "values": {"0": 0.0, "1": 0.0, "2": 0.0}}, "startup_cost": 0.0, "shutdown_cost": 0.0}, "6": {"bus": "13", "pg": 0.0, "qg": 9.0, "vg": 1.0, "mbase": 100.0, "in_service": true, "p_min": 0.0, "p_max": 0.0, "q_min": -6.0, "q_max": 24.0, "generator_type": "thermal", "p_cost": {"data_type": "cost_curve", "cost_curve_type": "polynomial", "values": {"0": 0.0, "1": 0.0, "2": 0.0}}, "startup_cost": 0.0, "shutdown_cost": 0.0}}, "branch": {"1": {"from_bus": "1", "to_bus": "2", "resistance": 0.0192, "reactance": 0.0575, "charging_susceptance": 0.0528, "branch_type": "line", "rating_long_term": 138.0, "rating_short_term": 138.0, "rating_emergency": 138.0, "in_service": true, "angle_diff_min": -30.0, "angle_diff_max": 30.0, "pf": 137.99999998700002, "qf": null, "pt": null, "qt": null}, "2": {"from_bus": "1", "to_bus": "3", "resistance": 0.0452, "reactance": 0.1652, "charging_susceptance": 0.0408, "branch_type": "line", "rating_long_term": 152.0, "rating_short_term": 152.0, "rating_emergency": 152.0, "in_service": true, "angle_diff_min": -30.0, "angle_diff_max": 30.0, "pf": 81.0165112668, "qf": null, "pt": null, "qt": null}, "3": {"from_bus": "2", "to_bus": "4", "resistance": 0.057, "reactance": 0.1737, "charging_susceptance": 0.0368, "branch_type": "line", "rating_long_term": 139.0, "rating_short_term": 139.0, "rating_emergency": 139.0, "in_service": true, "angle_diff_min": -30.0, "angle_diff_max": 30.0, "pf": 45.8456423174, "qf": null, "pt": null, "qt": null}, "4": {"from_bus": "3", "to_bus": "4", "resistance": 0.0132, "reactance": 0.0379, "charging_susceptance": 0.0084, "branch_type": "line", "rating_long_term": 135.0, "rating_short_term": 135.0, "rating_emergency": 135.0, "in_service": true, "angle_diff_min": -30.0, "angle_diff_max": 30.0, "pf": 76.5879741919, "qf": null, "pt": null, "qt": null}, "5": {"from_bus": "2", "to_bus": "5", "resistance": 0.0472, "reactance": 0.1983, "charging_susceptance": 0.0418, "branch_type": "line", "rating_long_term": 144.0, "rating_short_term": 144.0, "rating_emergency": 144.0, "in_service": true, "angle_diff_min": -30.0, "angle_diff_max": 30.0, "pf": 82.0819561032, "qf": null, "pt": null, "qt": null}, "6": {"from_bus": "2", "to_bus": "6", "resistance": 0.0581, "reactance": 0.1763, "charging_susceptance": 0.0374, "branch_type": "line", "rating_long_term": 139.0, "rating_short_term": 139.0, "rating_emergency": 139.0, "in_service": true, "angle_diff_min": -30.0, "angle_diff_max": 30.0, "pf": 61.3627263157, "qf": null, "pt": null, "qt": null}, "7": {"from_bus": "4", "to_bus": "6", "resistance": 0.0119, "reactance": 0.0414, "charging_susceptance": 0.009, "branch_type": "line", "rating_long_term": 148.0, "rating_short_term": 148.0, "rating_emergency": 148.0, "in_service": true, "angle_diff_min": -30.0, "angle_diff_max": 30.0, "pf": 70.7765655197, "qf": null, "pt": null, "qt": null}, "8": {"from_bus": "5", "to_bus": "7", "resistance": 0.046, "reactance": 0.116, "charging_susceptance": 0.0204, "branch_type": "line", "rating_long_term": 127.0, "rating_short_term": 127.0, "rating_emergency": 127.0, "in_service": true, "angle_diff_min": -30.0, "angle_diff_max": 30.0, "pf": -13.8492164856, "qf": null, "pt": null, "qt": null}, "9": {"from_bus": "6", "to_bus": "7", "resistance": 0.0267, "reactance": 0.082, "charging_susceptance": 0.017, "branch_type": "line", "rating_long_term": 140.0, "rating_short_term": 140.0, "rating_emergency": 140.0, "in_service": true, "angle_diff_min": -30.0, "angle_diff_max": 30.0, "pf": 36.9013292972, "qf": null, "pt": null, "qt": null}, "10": {"from_bus": "6", "to_bus": "8", "resistance": 0.012, "reactance": 0.042, "charging_susceptance": 0.009, "branch_type": "line", "rating_long_term": 148.0, "rating_short_term": 148.0, "rating_emergency": 148.0, "in_service": true, "angle_diff_min": -30.0, "angle_diff_max": 30.0, "pf": 29.721428366199998, "qf": null, "pt": null, "qt": null}, "11": {"from_bus": "6", "to_bus": "9", "resistance": 0.0, "reactance": 0.208, "charging_susceptance": 0.0, "transformer_tap_ratio": 0.978, "transformer_phase_shift": 0.0, "branch_type": "transformer", "rating_long_term": 142.0, "rating_short_term": 142.0, "rating_emergency": 142.0, "in_service": true, "angle_diff_min": -30.0, "angle_diff_max": 30.0, "pf": 27.7872473333, "qf": null, "pt": null, "qt": null}, "12": {"from_bus": "6", "to_bus": "10", "resistance": 0.0, "reactance": 0.556, "charging_susceptance": 0.0, "transformer_tap_ratio": 0.969, "transformer_phase_shift": 0.0, "branch_type": "transformer", "rating_long_term": 53.0, "rating_short_term": 53.0, "rating_emergency": 53.0, "in_service": true, "angle_diff_min": -30.0, "angle_diff_max": 30.0, "pf": 16.1651302009, "qf": null, "pt": null, "qt": null}, "13": {"from_bus": "9", "to_bus": "11", "resistance": 0.0, "reactance": 0.208, "charging_susceptance": 0.0, "transformer_tap_ratio": 1.0, "transformer_phase_shift": 0.0, "branch_type": "transformer", "rating_long_term": 142.0, "rating_short_term": 142.0, "rating_emergency": 142.0, "in_service": true, "angle_diff_min": -30.0, "angle_diff_max": 30.0, "pf": 4.25354208946e-09, "qf": null, "pt": null, "qt": null}, "14": {"from_bus": "9", "to_bus": "10", "resistance": 0.0, "reactance": 0.11, "charging_susceptance": 0.0, "transformer_tap_ratio": 1.0, "transformer_phase_shift": 0.0, "branch_type": "transformer", "rating_long_term": 267.0, "rating_short_term": 267.0, "rating_emergency": 267.0, "in_service": true, "angle_diff_min": -30.0, "angle_diff_max": 30.0, "pf": 27.7872473254, "qf": null, "pt": null, "qt": null}, "15": {"from_bus": "4", "to_bus": "12", "resistance": 0.0, "reactance": 0.256, "charging_susceptance": 0.0, "transformer_tap_ratio": 0.932, "transformer_phase_shift": 0.0, "branch_type": "transformer", "rating_long_term": 114.99999999999999, "rating_short_term": 114.99999999999999, "rating_emergency": 114.99999999999999, "in_service": true, "angle_diff_min": -30.0, "angle_diff_max": 30.0, "pf": 42.6367482962, "qf": null, "pt": null, "qt": null}, "16": {"from_bus": "12", "to_bus": "13", "resistance": 0.0, "reactance": 0.14, "charging_susceptance": 0.0, "transformer_tap_ratio": 1.0, "transformer_phase_shift": 0.0, "branch_type": "transformer", "rating_long_term": 210.0, "rating_short_term": 210.0, "rating_emergency": 210.0, "in_service": true, "angle_diff_min": -30.0, "angle_diff_max": 30.0, "pf": 3.90894119629e-09, "qf": null, "pt": null, "qt": null}, "17": {"from_bus": "12", "to_bus": "14", "resistance": 0.1231, "reactance": 0.2559, "charging_susceptance": 0.0, "branch_type": "line", "rating_long_term": 28.999999999999996, "rating_short_term": 28.999999999999996, "rating_emergency": 28.999999999999996, "in_service": true, "angle_diff_min": -30.0, "angle_diff_max": 30.0, "pf": 7.36833959206, "qf": null, "pt": null, "qt": null}, "18": {"from_bus": "12", "to_bus": "15", "resistance": 0.0662, "reactance": 0.1304, "charging_susceptance": 0.0, "branch_type": "line", "rating_long_term": 28.999999999999996, "rating_short_term": 28.999999999999996, "rating_emergency": 28.999999999999996, "in_service": true, "angle_diff_min": -30.0, "angle_diff_max": 30.0, "pf": 17.2021655903, "qf": null, "pt": null, "qt": null}, "19": {"from_bus": "12", "to_bus": "16", "resistance": 0.0945, "reactance": 0.1987, "charging_susceptance": 0.0, "branch_type": "line", "rating_long_term": 30.0, "rating_short_term": 30.0, "rating_emergency": 30.0, "in_service": true, "angle_diff_min": -30.0, "angle_diff_max": 30.0, "pf": 6.6760789025100005, "qf": null, "pt": null, "qt": null}, "20": {"from_bus": "14", "to_bus": "15", "resistance": 0.221, "reactance": 0.1997, "charging_susceptance": 0.0, "branch_type": "line", "rating_long_term": 20.0, "rating_short_term": 20.0, "rating_emergency": 20.0, "in_service": true, "angle_diff_min": -30.0, "angle_diff_max": 30.0, "pf": 1.1240833377, "qf": null, "pt": null, "qt": null}, "21": {"from_bus": "16", "to_bus": "17", "resistance": 0.0524, "reactance": 0.1923, "charging_susceptance": 0.0, "branch_type": "line", "rating_long_term": 38.0, "rating_short_term": 38.0, "rating_emergency": 38.0, "in_service": true, "angle_diff_min": -30.0, "angle_diff_max": 30.0, "pf": 3.1474676985, "qf": null, "pt": null, "qt": null}, "22": {"from_bus": "15", "to_bus": "18", "resistance": 0.1073, "reactance": 0.2185, "charging_susceptance": 0.0, "branch_type": "line", "rating_long_term": 28.999999999999996, "rating_short_term": 28.999999999999996, "rating_emergency": 28.999999999999996, "in_service": true, "angle_diff_min": -30.0, "angle_diff_max": 30.0, "pf": 5.5359135341800005, "qf": null, "pt": null, "qt": null}, "23": {"from_bus": "18", "to_bus": "19", "resistance": 0.0639, "reactance": 0.1292, "charging_susceptance": 0.0, "branch_type": "line", "rating_long_term": 28.999999999999996, "rating_short_term": 28.999999999999996, "rating_emergency": 28.999999999999996, "in_service": true, "angle_diff_min": -30.0, "angle_diff_max": 30.0, "pf": 2.31337837078, "qf": null, "pt": null, "qt": null}, "24": {"from_bus": "19", "to_bus": "20", "resistance": 0.034, "reactance": 0.068, "charging_susceptance": 0.0, "branch_type": "line", "rating_long_term": 28.999999999999996, "rating_short_term": 28.999999999999996, "rating_emergency": 28.999999999999996, "in_service": true, "angle_diff_min": -30.0, "angle_diff_max": 30.0, "pf": -7.19976533775, "qf": null, "pt": null, "qt": null}, "25": {"from_bus": "10", "to_bus": "20", "resistance": 0.0936, "reactance": 0.209, "charging_susceptance": 0.0, "branch_type": "line", "rating_long_term": 30.0, "rating_short_term": 30.0, "rating_emergency": 30.0, "in_service": true, "angle_diff_min": -30.0, "angle_diff_max": 30.0, "pf": 9.461074368390001, "qf": null, "pt": null, "qt": null}, "26": {"from_bus": "10", "to_bus": "17", "resistance": 0.0324, "reactance": 0.0845, "charging_susceptance": 0.0, "branch_type": "line", "rating_long_term": 33.0, "rating_short_term": 33.0, "rating_emergency": 33.0, "in_service": true, "angle_diff_min": -30.0, "angle_diff_max": 30.0, "pf": 5.86170559443, "qf": null, "pt": null, "qt": null}, "27": {"from_bus": "10", "to_bus": "21", "resistance": 0.0348, "reactance": 0.0749, "charging_susceptance": 0.0, "branch_type": "line", "rating_long_term": 30.0, "rating_short_term": 30.0, "rating_emergency": 30.0, "in_service": true, "angle_diff_min": -30.0, "angle_diff_max": 30.0, "pf": 15.439287370499999, "qf": null, "pt": null, "qt": null}, "28": {"from_bus": "10", "to_bus": "22", "resistance": 0.0727, "reactance": 0.1499, "charging_susceptance": 0.0, "branch_type": "line", "rating_long_term": 28.999999999999996, "rating_short_term": 28.999999999999996, "rating_emergency": 28.999999999999996, "in_service": true, "angle_diff_min": -30.0, "angle_diff_max": 30.0, "pf": 7.25953860602, "qf": null, "pt": null, "qt": null}, "29": {"from_bus": "21", "to_bus": "22", "resistance": 0.0116, "reactance": 0.0236, "charging_susceptance": 0.0, "branch_type": "line", "rating_long_term": 28.999999999999996, "rating_short_term": 28.999999999999996, "rating_emergency": 28.999999999999996, "in_service": true, "angle_diff_min": -30.0, "angle_diff_max": 30.0, "pf": -2.11146397765, "qf": null, "pt": null, "qt": null}, "30": {"from_bus": "15", "to_bus": "23", "resistance": 0.1, "reactance": 0.202, "charging_susceptance": 0.0, "branch_type": "line", "rating_long_term": 28.999999999999996, "rating_short_term": 28.999999999999996, "rating_emergency": 28.999999999999996, "in_service": true, "angle_diff_min": -30.0, "angle_diff_max": 30.0, "pf": 4.43140565568, "qf": null, "pt": null, "qt": null}, "31": {"from_bus": "22", "to_bus": "24", "resistance": 0.115, "reactance": 0.179, "charging_susceptance": 0.0, "branch_type": "line", "rating_long_term": 26.0, "rating_short_term": 26.0, "rating_emergency": 26.0, "in_service": true, "angle_diff_min": -30.0, "angle_diff_max": 30.0, "pf": 5.10293761812, "qf": null, "pt": null, "qt": null}, "32": {"from_bus": "23", "to_bus": "24", "resistance": 0.132, "reactance": 0.27, "charging_susceptance": 0.0, "branch_type": "line", "rating_long_term": 28.999999999999996, "rating_short_term": 28.999999999999996, "rating_emergency": 28.999999999999996, "in_service": true, "angle_diff_min": -30.0, "angle_diff_max": 30.0, "pf": 1.21796743523, "qf": null, "pt": null, "qt": null}, "33": {"from_bus": "24", "to_bus": "25", "resistance": 0.1885, "reactance": 0.3292, "charging_susceptance": 0.0, "branch_type": "line", "rating_long_term": 27.0, "rating_short_term": 27.0, "rating_emergency": 27.0, "in_service": true, "angle_diff_min": -30.0, "angle_diff_max": 30.0, "pf": -2.40872296693, "qf": null, "pt": null, "qt": null}, "34": {"from_bus": "25", "to_bus": "26", "resistance": 0.2544, "reactance": 0.38, "charging_susceptance": 0.0, "branch_type": "line", "rating_long_term": 25.0, "rating_short_term": 25.0, "rating_emergency": 25.0, "in_service": true, "angle_diff_min": -30.0, "angle_diff_max": 30.0, "pf": 3.52286168033, "qf": null, "pt": null, "qt": null}, "35": {"from_bus": "25", "to_bus": "27", "resistance": 0.1093, "reactance": 0.2087, "charging_susceptance": 0.0, "branch_type": "line", "rating_long_term": 28.000000000000004, "rating_short_term": 28.000000000000004, "rating_emergency": 28.000000000000004, "in_service": true, "angle_diff_min": -30.0, "angle_diff_max": 30.0, "pf": -5.98666696829, "qf": null, "pt": null, "qt": null}, "36": {"from_bus": "28", "to_bus": "27", "resistance": 0.0, "reactance": 0.396, "charging_susceptance": 0.0, "transformer_tap_ratio": 0.968, "transformer_phase_shift": 0.0, "branch_type": "transformer", "rating_long_term": 75.0, "rating_short_term": 75.0, "rating_emergency": 75.0, "in_service": true, "angle_diff_min": -30.0, "angle_diff_max": 30.0, "pf": 19.3634071736, "qf": null, "pt": null, "qt": null}, "37": {"from_bus": "27", "to_bus": "29", "resistance": 0.2198, "reactance": 0.4153, "charging_susceptance": 0.0, "branch_type": "line", "rating_long_term": 28.000000000000004, "rating_short_term": 28.000000000000004, "rating_emergency": 28.000000000000004, "in_service": true, "angle_diff_min": -30.0, "angle_diff_max": 30.0, "pf": 6.1732022703, "qf": null, "pt": null, "qt": null}, "38": {"from_bus": "27", "to_bus": "30", "resistance": 0.3202, "reactance": 0.6027, "charging_susceptance": 0.0, "branch_type": "line", "rating_long_term": 28.000000000000004, "rating_short_term": 28.000000000000004, "rating_emergency": 28.000000000000004, "in_service": true, "angle_diff_min": -30.0, "angle_diff_max": 30.0, "pf": 7.02369275752, "qf": null, "pt": null, "qt": null}, "39": {"from_bus": "29", "to_bus": "30", "resistance": 0.2399, "reactance": 0.4533, "charging_susceptance": 0.0, "branch_type": "line", "rating_long_term": 28.000000000000004, "rating_short_term": 28.000000000000004, "rating_emergency": 28.000000000000004, "in_service": true, "angle_diff_min": -30.0, "angle_diff_max": 30.0, "pf": 3.69858529268, "qf": null, "pt": null, "qt": null}, "40": {"from_bus": "8", "to_bus": "28", "resistance": 0.0636, "reactance": 0.2, "charging_susceptance": 0.0428, "branch_type": "line", "rating_long_term": 140.0, "rating_short_term": 140.0, "rating_emergency": 140.0, "in_service": true, "angle_diff_min": -30.0, "angle_diff_max": 30.0, "pf": -0.335939651227, "qf": null, "pt": null, "qt": null}, "41": {"from_bus": "6", "to_bus": "28", "resistance": 0.0169, "reactance": 0.0599, "charging_susceptance": 0.013, "branch_type": "line", "rating_long_term": 149.0, "rating_short_term": 149.0, "rating_emergency": 149.0, "in_service": true, "angle_diff_min": -30.0, "angle_diff_max": 30.0, "pf": 19.7349160115, "qf": null, "pt": null, "qt": null}}}, "system": {"model_name": "pglib_opf_case30_ieee", "mpc_version": "'2'", "baseMVA": 100.0, "reference_bus": "1", "reference_bus_angle": 0.0, "total_cost": 8201.837114117701}}
